@<TRIPOS>MOLECULE
*****
 41 43 0 0 0
SMALL
GASTEIGER

@<TRIPOS>ATOM
      1 C          16.2330   10.4910   -6.1250 C.3     1  LG111       0.1152
      2 O          17.4860   10.8100   -3.5010 O.3     1  LG111      -0.3313
      3 C          17.1820   11.6700   -5.9020 C.3     1  LG111       0.1120
      4 O          15.4220   11.6420   -3.1480 O.3     1  LG111      -0.4607
      5 C          15.4560   10.1570   -4.8530 C.3     1  LG111       0.1454
      6 O          15.3360   10.7430   -7.2120 O.3     1  LG111      -0.3864
      7 C          18.0210   11.4600   -4.6380 C.3     1  LG111       0.1140
      8 O          17.9760   11.8780   -7.0730 O.3     1  LG111      -0.3865
      9 C          16.1580   10.3420   -3.5180 C.3     1  LG111       0.2308
     10 O          15.0410    8.7730   -4.9630 O.3     1  LG111      -0.3829
     11 C          18.6220   12.8010   -4.1780 C.3     1  LG111       0.0731
     12 O          19.6414   12.5686   -3.2055 O.3     1  LG111      -0.3924
     13 C          16.0869   12.8066   -2.9131 C.ar    1  LG111       0.1276
     14 C          15.6087   14.0852   -3.1496 C.ar    1  LG111       0.0238
     15 C          19.6981   16.2584   -1.4149 C.2     1  LG111      -0.0623
     16 C          17.3796   12.6387   -2.4095 C.ar    1  LG111      -0.0185
     17 C          16.4300   15.1799   -2.8516 C.ar    1  LG111       0.1496
     18 C          18.1796   13.7422   -2.0949 C.ar    1  LG111      -0.0405
     19 C          17.7125   15.0438   -2.3067 C.ar    1  LG111       0.0523
     20 H          16.8240    9.6190   -6.4370 H       1  LG111       0.0648
     21 H          16.5660   12.5730   -5.7900 H       1  LG111       0.0647
     22 H          14.5050   10.7080   -4.8840 H       1  LG111       0.0683
     23 H          18.8770   10.8340   -4.9220 H       1  LG111       0.0647
     24 H          15.8130    9.8510   -2.6040 H       1  LG111       0.1084
     25 H          17.8615   13.4337   -3.7096 H       1  LG111       0.0584
     26 H          19.0693   13.3504   -5.0120 H       1  LG111       0.0584
     27 H          14.5130   10.2550   -7.0060 H       1  LG111       0.2100
     28 H          18.6000   12.6070   -6.9030 H       1  LG111       0.2100
     29 H          15.8580    8.2670   -5.1400 H       1  LG111       0.2102
     30 H          20.3297   12.0500   -3.6632 H       1  LG111       0.2095
     31 H          14.6205   14.2595   -3.5575 H       1  LG111       0.0691
     32 H          17.7627   11.6359   -2.2346 H       1  LG111       0.0654
     33 O          15.8950   16.4491   -3.1513 O.3     1  LG111      -0.4210
     34 H          19.1655   13.5490   -1.6842 H       1  LG111       0.0632
     35 C          18.4870   16.2604   -2.0002 C.1     1  LG111      -0.1447
     36 H          20.2418   17.1751   -1.1976 H       1  LIG11       0.0616
     37 H          20.2081   15.3509   -1.1110 H       1  LIG11       0.0616
     38 C          17.9510   17.4487   -2.3148 C.2     1  LIG11       0.0582
     39 C          16.6265   17.6013   -2.9342 C.2     1  LIG11       0.3443
     40 H          18.4555   18.3910   -2.1281 H       1  LIG11       0.0772
     41 O          16.2026   18.7127   -3.2302 O.2     1  LIG11      -0.2445
@<TRIPOS>BOND
     1     1     3    1
     2     1     5    1
     3     1     6    1
     4     1    20    1
     5     2     7    1
     6     2     9    1
     7     3     7    1
     8     3     8    1
     9     3    21    1
    10     4     9    1
    11     4    13    1
    12     5     9    1
    13     5    10    1
    14     5    22    1
    15     6    27    1
    16     7    11    1
    17     7    23    1
    18     8    28    1
    19     9    24    1
    20    10    29    1
    21    11    12    1
    22    11    25    1
    23    11    26    1
    24    12    30    1
    25    13    14   ar
    26    13    16   ar
    27    14    17   ar
    28    14    31    1
    29    16    18   ar
    30    16    32    1
    31    17    19   ar
    32    17    33    1
    33    18    19   ar
    34    18    34    1
    35    35    15    2
    36    35    19    1
    37    15    36    1
    38    15    37    1
    39    35    38    2
    40    38    39    1
    41    38    40    1
    42    39    33    1
    43    39    41    2
