@<TRIPOS>MOLECULE
*****
 36 37 0 0 0
SMALL
GASTEIGER

@<TRIPOS>ATOM
      1 O2         14.9840   11.3430   -4.7510 O.3     1  LG11       -0.4608
      2 C5         15.7410   10.0090   -4.8610 C.3     1  LG11        0.2308
      3 C3         15.3680    9.7560   -6.3140 C.3     1  LG11        0.1454
      4 C1         16.4370    9.9950   -7.3800 C.3     1  LG11        0.1152
      5 C2         17.3450   11.1660   -7.0020 C.3     1  LG11        0.1120
      6 C4         17.8540   11.0170   -5.5660 C.3     1  LG11        0.1140
      7 C6         18.3750   12.3700   -5.0490 C.3     1  LG11        0.0731
      8 O6         17.4000   13.3890   -5.2760 O.3     1  LG11       -0.3924
      9 O1         17.0430   10.4490   -4.5540 O.3     1  LG11       -0.3313
     10 O4         18.4000   11.2850   -7.9600 O.3     1  LG11       -0.3865
     11 O3         15.8310   10.1980   -8.6610 O.3     1  LG11       -0.3864
     12 O5         14.9440    8.3770   -6.4430 O.3     1  LG11       -0.3829
     13 C7         15.1610   12.1630   -3.6690 C.ar    1  LG11        0.1241
     14 C8         16.0400   11.9550   -2.6090 C.ar    1  LG11       -0.0177
     15 C10        16.0910   12.8670   -1.5450 C.ar    1  LG11       -0.0280
     16 C12        15.2530   13.9940   -1.5210 C.ar    1  LG11        0.1264
     17 N1         15.3090   14.8740   -0.4780 N.pl3   1  LG11        0.0564
     18 O7         15.8490   14.4950    0.6960 O.2     1  LG11       -0.1261
     19 O8         14.8040   16.1140   -0.6120 O.2     1  LG11       -0.1261
     20 C11        14.3560   14.1870   -2.5830 C.ar    1  LG11       -0.0280
     21 C9         14.3110   13.2710   -3.6420 C.ar    1  LG11       -0.0177
     22 H5         15.1730    9.5810   -4.0320 H       1  LG11        0.1084
     23 H3         14.4720   10.3240   -6.6010 H       1  LG11        0.0683
     24 H1         17.0530    9.0930   -7.4940 H       1  LG11        0.0648
     25 H2         16.7530   12.0860   -7.0900 H       1  LG11        0.0647
     26 H4         18.7310   10.3570   -5.6010 H       1  LG11        0.0647
     27 H6         19.2880   12.6680   -5.5750 H       1  LG11        0.0584
     28 H7         18.5870   12.3380   -3.9750 H       1  LG11        0.0584
     29 H11        17.8320   14.2270   -5.0260 H       1  LG11        0.2095
     30 H9         18.0800   11.8080   -8.7180 H       1  LG11        0.2100
     31 H8         16.5590   10.1810   -9.3150 H       1  LG11        0.2100
     32 H10        14.3360    8.3600   -7.2090 H       1  LG11        0.2102
     33 H12        16.6960   11.0900   -2.5680 H       1  LG11        0.0655
     34 H14        16.7920   12.6830   -0.7290 H       1  LG11        0.0641
     35 H15        13.6790   15.0390   -2.6070 H       1  LG11        0.0641
     36 H13        13.6040   13.4290   -4.4560 H       1  LG11        0.0655
@<TRIPOS>BOND
     1    31    11    1
     2    30    10    1
     3    11     4    1
     4    10     5    1
     5    24     4    1
     6     4     5    1
     7     4     3    1
     8    32    12    1
     9    25     5    1
    10     5     6    1
    11    23     3    1
    12    12     3    1
    13     3     2    1
    14    26     6    1
    15    27     7    1
    16     6     7    1
    17     6     9    1
    18     8     7    1
    19     8    29    1
    20     7    28    1
    21     2     1    1
    22     2     9    1
    23     2    22    1
    24     1    13    1
    25    36    21    1
    26    13    21   ar
    27    13    14   ar
    28    21    20   ar
    29    14    33    1
    30    14    15   ar
    31    35    20    1
    32    20    16   ar
    33    15    16   ar
    34    15    34    1
    35    16    17    1
    36    19    17    2
    37    17    18    2
@<TRIPOS>SUBSTRUCTURE
999   UNK  1
