@<TRIPOS>MOLECULE
*****
 41 43 0 0 0
SMALL
GASTEIGER

@<TRIPOS>ATOM
      1 C          16.2330   10.4910   -6.1250 C.3     1  LG11        0.1152
      2 O          17.4860   10.8100   -3.5010 O.3     1  LG11       -0.3313
      3 C          17.1820   11.6700   -5.9020 C.3     1  LG11        0.1120
      4 O          15.4220   11.6420   -3.1480 O.3     1  LG11       -0.4607
      5 C          15.4560   10.1570   -4.8530 C.3     1  LG11        0.1454
      6 O          15.3360   10.7430   -7.2120 O.3     1  LG11       -0.3864
      7 C          18.0210   11.4600   -4.6380 C.3     1  LG11        0.1140
      8 O          17.9760   11.8780   -7.0730 O.3     1  LG11       -0.3865
      9 C          16.1580   10.3420   -3.5180 C.3     1  LG11        0.2308
     10 O          15.0410    8.7730   -4.9630 O.3     1  LG11       -0.3829
     11 C          18.6220   12.8010   -4.1780 C.3     1  LG11        0.0731
     12 O          19.2470   12.6420   -2.9040 O.3     1  LG11       -0.3924
     13 C          15.7738   12.3879   -2.0647 C.ar    1  LG11        0.1276
     14 C          16.3563   11.9165   -0.8995 C.ar    1  LG11        0.0238
     15 C          16.6509   16.4171    1.1284 C.2     1  LG11       -0.0623
     16 C          15.4738   13.7478   -2.1815 C.ar    1  LG11       -0.0185
     17 C          16.6527   12.8257    0.1239 C.ar    1  LG11        0.1496
     18 C          15.7969   14.6475   -1.1604 C.ar    1  LG11       -0.0405
     19 C          16.4028   14.1992    0.0183 C.ar    1  LG11        0.0523
     20 H          16.8240    9.6190   -6.4370 H       1  LG11        0.0648
     21 H          16.5660   12.5730   -5.7900 H       1  LG11        0.0647
     22 H          14.5050   10.7080   -4.8840 H       1  LG11        0.0683
     23 H          18.8770   10.8340   -4.9220 H       1  LG11        0.0647
     24 H          15.8130    9.8510   -2.6040 H       1  LG11        0.1084
     25 H          17.8450   13.5640   -4.0680 H       1  LG11        0.0584
     26 H          19.3760   13.1680   -4.8810 H       1  LG11        0.0584
     27 H          14.5130   10.2550   -7.0060 H       1  LG11        0.2100
     28 H          18.6000   12.6070   -6.9030 H       1  LG11        0.2100
     29 H          15.8580    8.2670   -5.1400 H       1  LG11        0.2102
     30 H          19.9680   11.9990   -3.0420 H       1  LG11        0.2095
     31 H          16.5872   10.8674   -0.7598 H       1  LG11        0.0691
     32 H          15.0049   14.1191   -3.0900 H       1  LG11        0.0654
     33 O          17.2097   12.2728    1.2948 O.3     1  LG11       -0.4210
     34 H          15.5613   15.6951   -1.3187 H       1  LG11        0.0632
     35 C          16.7792   15.0782    1.1406 C.1     1  LG11       -0.1447
     36 H          16.9431   17.0382    1.9723 H       1  LIG1        0.0616
     37 H          16.2609   16.9675    0.2794 H       1  LIG1        0.0616
     38 C          17.2913   14.5131    2.2437 C.2     1  LIG1        0.0582
     39 C          17.5106   13.0664    2.3854 C.2     1  LIG1        0.3443
     40 H          17.5893   15.0861    3.1155 H       1  LIG1        0.0772
     41 O          17.9512   12.6036    3.4315 O.2     1  LIG1       -0.2445
@<TRIPOS>BOND
     1     1     3    1
     2     1     5    1
     3     1     6    1
     4     1    20    1
     5     2     7    1
     6     2     9    1
     7     3     7    1
     8     3     8    1
     9     3    21    1
    10     4     9    1
    11     4    13    1
    12     5     9    1
    13     5    10    1
    14     5    22    1
    15     6    27    1
    16     7    11    1
    17     7    23    1
    18     8    28    1
    19     9    24    1
    20    10    29    1
    21    11    12    1
    22    11    25    1
    23    11    26    1
    24    12    30    1
    25    13    14   ar
    26    13    16   ar
    27    14    17   ar
    28    14    31    1
    29    16    18   ar
    30    16    32    1
    31    17    19   ar
    32    17    33    1
    33    18    19   ar
    34    18    34    1
    35    35    15    2
    36    35    19    1
    37    15    36    1
    38    15    37    1
    39    35    38    2
    40    38    39    1
    41    38    40    1
    42    39    33    1
    43    39    41    2
