@<TRIPOS>MOLECULE
*****
 57 57 0 0 0
SMALL
GASTEIGER

@<TRIPOS>ATOM
      1 C          62.7090   34.9020   41.0470 C.3   167  GLU167     -0.0596
      2 C          63.7640   34.9770   39.9760 C.3   167  GLU167     -0.0120
      3 C          64.1830   33.6090   39.4850 C.2   167  GLU167      0.0227
      4 O          63.5600   32.6120   39.9000 O.3   167  GLU167     -0.5257
      5 O          65.1180   33.5420   38.6610 O.co2 167  GLU167     -0.8510
      6 C          66.0770   29.0070   31.8280 C.3   298  TYR298     -0.0397
      7 C          67.0670   29.4270   32.8750 C.ar  298  TYR298     -0.0502
      8 C          68.3360   28.8480   32.9480 C.ar  298  TYR298     -0.0554
      9 C          66.7470   30.4350   33.7780 C.ar  298  TYR298     -0.0554
     10 C          69.2520   29.2740   33.9060 C.ar  298  TYR298     -0.0199
     11 C          67.6500   30.8610   34.7280 C.ar  298  TYR298     -0.0199
     12 C          68.8940   30.2790   34.7900 C.ar  298  TYR298      0.1169
     13 O          69.7740   30.6760   35.7570 O.3   298  TYR298     -0.5068
     14 C          69.6220   34.9570   36.2060 C.3   356  GLU356     -0.0638
     15 C          69.5640   33.4480   36.0580 C.3   356  GLU356     -0.0364
     16 C          68.5810   32.7850   37.0250 C.3   356  GLU356      0.0562
     17 O          69.1820   32.1910   38.2500 O.3   356  GLU356     -0.3502
     18 O          67.3840   32.8210   36.6280 O.co2 356  GLU356     -0.8265
     19 C1         67.8420   31.7830   38.3730 C.3  1449  G2F1449     0.2185
     20 C2         67.8800   31.9430   39.9300 C.3  1449  G2F1449     0.1839
     21 C3         69.0540   31.1130   40.4890 C.3  1449  G2F1449     0.1196
     22 O3         68.9940   31.1880   41.9040 O.3  1449  G2F1449    -0.3861
     23 C4         69.0000   29.6200   40.0450 C.3  1449  G2F1449     0.1122
     24 O4         70.1620   28.9050   40.5170 O.3  1449  G2F1449    -0.3865
     25 C5         68.8200   29.5740   38.4900 C.3  1449  G2F1449     0.1133
     26 O5         67.6860   30.3780   38.0990 O.3  1449  G2F1449    -0.3367
     27 C6         68.6080   28.1890   37.8720 C.3  1449  G2F1449     0.0730
     28 O6         67.5240   27.5050   38.4900 O.3  1449  G2F1449    -0.3924
     29 F2         67.9310   33.3370   40.3830 F    1449  G2F1449    -0.2370
     30 H          62.4474   35.8912   41.3599 H       1  LIG1        0.0233
     31 H          63.0879   34.3520   41.8830 H       1  LIG1        0.0233
     32 H          61.8417   34.4095   40.6595 H       1  LIG1        0.0233
     33 H          66.4988   28.2253   31.2314 H       2  LIG2        0.0278
     34 H          65.8409   29.8438   31.2043 H       2  LIG2        0.0278
     35 H          65.1855   28.6525   32.3018 H       2  LIG2        0.0278
     36 H          70.3242   35.3574   35.5050 H       3  LIG3        0.0230
     37 H          69.9289   35.2063   37.2003 H       3  LIG3        0.0230
     38 H          68.6537   35.3714   36.0171 H       3  LIG3        0.0230
     39 H          63.3761   35.5351   39.1496 H       1  LIG1        0.0328
     40 H          64.6254   35.4509   40.3982 H       1  LIG1        0.0328
     41 H          62.8652   32.7182   40.5196 H       1  LIG1        0.2899
     42 H          68.5964   28.0993   32.2872 H       2  LIG2        0.0621
     43 H          65.8136   30.8733   33.7359 H       2  LIG2        0.0621
     44 H          70.1892   28.8451   33.9572 H       2  LIG2        0.0654
     45 H          67.3941   31.6117   35.3883 H       2  LIG2        0.0654
     46 H          70.6239   30.2845   35.8063 H       2  LIG2        0.2921
     47 H          70.5406   33.0506   36.2402 H       3  LIG3        0.0279
     48 H          69.2237   33.2387   35.0654 H       3  LIG3        0.0279
     49 H          66.9547   31.5709   40.3176 H       3  LIG3        0.0734
     50 H          69.9693   31.5138   40.1062 H       3  LIG3        0.0651
     51 H          68.1527   30.8163   42.2121 H       3  LIG3        0.2100
     52 H          68.1630   29.1195   40.4852 H       3  LIG3        0.0647
     53 H          70.9628   29.3120   40.1510 H       3  LIG3        0.2100
     54 H          69.7549   29.9419   38.1217 H       3  LIG3        0.0647
     55 H          69.5003   27.6118   37.9968 H       3  LIG3        0.0584
     56 H          68.3791   28.3148   36.8344 H       3  LIG3        0.0584
     57 H          67.7148   27.3821   39.4331 H       3  LIG3        0.2095
@<TRIPOS>BOND
     1    16    19    1
     2    17    19    1
     3    19    20    1
     4    19    26    1
     5    20    21    1
     6    20    29    1
     7    21    22    1
     8    21    23    1
     9    23    24    1
    10    23    25    1
    11    25    26    1
    12    25    27    1
    13    27    28    1
    14     6     7    1
    15     7     8   ar
    16     7     9   ar
    17     8    10   ar
    18     9    11   ar
    19    10    12   ar
    20    11    12   ar
    21    12    13    1
    22    15    14    1
    23    15    16    1
    24    18    16    1
    25    16    17    1
    26     5     3    2
    27     3     4    1
    28     3     2    1
    29     2     1    1
    30     1    30    1
    31     1    31    1
    32     1    32    1
    33     6    33    1
    34     6    34    1
    35     6    35    1
    36    14    36    1
    37    14    37    1
    38    14    38    1
    39     2    39    1
    40     2    40    1
    41     4    41    1
    42     8    42    1
    43     9    43    1
    44    10    44    1
    45    11    45    1
    46    13    46    1
    47    15    47    1
    48    15    48    1
    49    20    49    1
    50    21    50    1
    51    22    51    1
    52    23    52    1
    53    24    53    1
    54    25    54    1
    55    27    55    1
    56    27    56    1
    57    28    57    1
