@<TRIPOS>MOLECULE
*****
 76 74 0 0 0
SMALL
GASTEIGER

@<TRIPOS>ATOM
      1 C          62.7090   34.9020   41.0470 C.3   167  GLU167167   -0.0552
      2 C          63.7640   34.9770   39.9760 C.3   167  GLU167167    0.0420
      3 C          63.2556   34.4465   38.6615 C.2   167  GLU167167    0.3044
      4 O          62.8692   33.1582   38.5386 O.3   167  GLU167167   -0.4806
      5 O          63.2051   35.1830   37.6892 O.2   167  GLU167167   -0.2510
      6 C          66.0770   29.0070   31.8280 C.3   298  TYR298298   -0.0397
      7 C          67.0670   29.4270   32.8750 C.ar  298  TYR298298   -0.0502
      8 C          68.4427   29.2576   32.6473 C.ar  298  TYR298298   -0.0554
      9 C          66.6238   29.8870   34.1240 C.ar  298  TYR298298   -0.0554
     10 C          69.3623   29.5222   33.6647 C.ar  298  TYR298298   -0.0199
     11 C          67.5471   30.1508   35.1424 C.ar  298  TYR298298   -0.0199
     12 C          68.9163   29.9552   34.9204 C.ar  298  TYR298298    0.1169
     13 O          69.7938   30.1706   35.9216 O.3   298  TYR298298   -0.5068
     14 C          70.6194   33.3465   34.9481 C.3   356  GLU356356   -0.0496
     15 C          69.5640   33.4480   36.0580 C.3   356  GLU356356    0.0657
     16 C          67.1641   30.2097   41.4542 C.3  1449  G2F14491449    0.1854
     17 C          68.4068   31.0407   41.8285 C.3  1449  G2F14491449    0.1339
     18 C          69.6495   30.1214   41.9065 C.3  1449  G2F14491449    0.1141
     19 O          69.8295   29.6670   43.2235 O.3  1449  G2F14491449   -0.3864
     20 C          69.4967   28.8959   40.9747 C.3  1449  G2F14491449    0.1119
     21 O          70.7545   28.3856   40.6122 O.3  1449  G2F14491449   -0.3865
     22 C          68.5913   29.2244   39.7596 C.3  1449  G2F14491449    0.1130
     23 O          67.2694   29.6107   40.1566 O.3  1449  G2F14491449   -0.3407
     24 C          68.4682   28.0180   38.8179 C.3  1449  G2F14491449    0.0730
     25 O          67.8652   26.9416   39.4832 O.3  1449  G2F14491449   -0.3924
     26 O          68.5877   32.0123   40.8264 O.3  1449  G2F14491449   -0.3841
     27 H          63.1156   35.3075   41.9976 H       1  LIG11       0.0235
     28 H          62.3950   33.8515   41.2223 H       1  LIG11       0.0235
     29 H          61.8213   35.5036   40.7558 H       1  LIG11       0.0235
     30 H          66.5795   28.6246   30.9140 H       2  LIG22       0.0278
     31 H          65.4471   29.8759   31.5437 H       2  LIG22       0.0278
     32 H          65.4255   28.2034   32.2319 H       2  LIG22       0.0278
     33 H          71.2681   32.4638   35.1273 H       3  LIG33       0.0240
     34 H          71.2636   34.2519   34.9397 H       3  LIG33       0.0240
     35 H          70.1296   33.2321   33.9575 H       3  LIG33       0.0240
     36 H          64.0717   36.0394   39.8585 H       1  LIG11       0.0375
     37 H          64.6535   34.3874   40.2855 H       1  LIG11       0.0375
     38 H          62.9186   32.5424   39.2827 H       1  LIG11       0.2951
     39 H          68.8005   28.8884   31.6941 H       2  LIG22       0.0621
     40 H          65.5650   30.0075   34.3176 H       2  LIG22       0.0621
     41 H          70.4187   29.3673   33.4845 H       2  LIG22       0.0654
     42 H          67.1975   30.4850   36.1113 H       2  LIG22       0.0654
     43 H          70.7447   30.0330   35.8047 H       2  LIG22       0.2921
     44 H          68.2550   31.5578   42.8059 H       3  LIG33       0.0671
     45 H          70.5173   30.7637   41.6238 H       3  LIG33       0.0648
     46 H          70.7755   29.3746   43.2999 H       3  LIG33       0.2100
     47 H          68.9529   28.0995   41.5311 H       3  LIG33       0.0647
     48 H          71.1860   29.0600   40.0252 H       3  LIG33       0.2100
     49 H          69.0523   30.0514   39.1754 H       3  LIG33       0.0647
     50 H          69.4780   27.7241   38.4533 H       3  LIG33       0.0584
     51 H          67.8428   28.3130   37.9463 H       3  LIG33       0.0584
     52 H          67.8650   26.1850   38.8414 H       3  LIG33       0.2095
     53 H          69.1543   32.7293   41.2148 H       4  LIG4        0.2101
     54 O          66.0200   31.0225   41.4979 O.3     4  LIG4       -0.3649
     55 H          66.0309   31.5967   40.6880 H       4  LIG4        0.2126
     56 H          67.0180   29.4056   42.2085 H       4  LIG4        0.0935
     57 H          70.0984   33.5284   37.0309 H       3  LIG3        0.0445
     58 H          68.9840   32.5035   36.0268 H       3  LIG3        0.0445
     59 C          68.6243   34.6078   35.9147 C.1     3  LIG3        0.2336
     60 O          68.9718   35.4332   35.1172 O.2     3  LIG3       -0.2054
     61 O          67.7391   34.3757   36.6898 O.2     3  LIG3       -0.2054
     62 H          66.1927   26.6485   36.9401 H       5  LIG5        0.2921
     63 H          65.9447   24.9319   35.2707 H       5  LIG5        0.0660
     64 O          65.2374   26.8028   36.9292 O.2     5  LIG5       -0.5067
     65 C          64.8822   25.1535   35.3026 C.2     5  LIG5       -0.0124
     66 C          64.4107   26.0998   36.1230 C.2     5  LIG5        0.1180
     67 H          64.3959   23.6419   33.7846 H       5  LIG5        0.0709
     68 C          63.9528   24.3975   34.4278 C.2     5  LIG5       -0.0103
     69 C          62.9664   26.3712   36.1395 C.2     5  LIG5       -0.0124
     70 C          62.6216   24.6116   34.4060 C.1     5  LIG5       -0.0450
     71 H          62.5687   27.1352   36.8007 H       5  LIG5        0.0660
     72 C          62.1377   25.6774   35.3398 C.2     5  LIG5       -0.0103
     73 C          61.7398   23.9729   33.6475 C.1     5  LIG5        0.2976
     74 H          61.0800   25.9212   35.3947 H       5  LIG5        0.0709
     75 O          62.2107   23.1346   32.9284 O.2     5  LIG5       -0.1922
     76 O          60.5882   24.2929   33.7570 O.2     5  LIG5       -0.1922
@<TRIPOS>BOND
     1    16    17    1
     2    16    23    1
     3    17    18    1
     4    17    26    1
     5    18    19    1
     6    18    20    1
     7    20    21    1
     8    20    22    1
     9    22    23    1
    10    22    24    1
    11    24    25    1
    12     6     7    1
    13     7     8   ar
    14     7     9   ar
    15     8    10   ar
    16     9    11   ar
    17    10    12   ar
    18    11    12   ar
    19    12    13    1
    20    15    14    1
    21     5     3    2
    22     3     4    1
    23     3     2    1
    24     2     1    1
    25     1    27    1
    26     1    28    1
    27     1    29    1
    28     6    30    1
    29     6    31    1
    30     6    32    1
    31    14    33    1
    32    14    34    1
    33    14    35    1
    34     2    36    1
    35     2    37    1
    36     4    38    1
    37     8    39    1
    38     9    40    1
    39    10    41    1
    40    11    42    1
    41    13    43    1
    42    17    44    1
    43    18    45    1
    44    19    46    1
    45    20    47    1
    46    21    48    1
    47    22    49    1
    48    24    50    1
    49    24    51    1
    50    25    52    1
    51    26    53    1
    52    16    54    1
    53    54    55    1
    54    16    56    1
    55    15    57    1
    56    15    58    1
    57    15    59    1
    58    59    60    2
    59    59    61    2
    60    64    62    1
    61    65    66    2
    62    65    63    1
    63    66    64    1
    64    68    65    1
    65    68    67    1
    66    69    66    1
    67    69    71    1
    68    70    68    2
    69    70    72    1
    70    72    69    2
    71    72    74    1
    72    73    70    2
    73    73    75    2
    74    73    76    2
