@<TRIPOS>MOLECULE
*****
 76 74 0 0 0
SMALL
GASTEIGER

@<TRIPOS>ATOM
      1 C          62.7090   34.9020   41.0470 C.3   167  GLU167167   -0.0552
      2 C          63.7640   34.9770   39.9760 C.3   167  GLU167167    0.0420
      3 C          64.1830   33.6090   39.4850 C.2   167  GLU167167    0.3044
      4 O          63.5600   32.6120   39.9000 O.3   167  GLU167167   -0.4806
      5 O          65.1180   33.5420   38.6610 O.2   167  GLU167167   -0.2510
      6 C          66.0770   29.0070   31.8280 C.3   298  TYR298298   -0.0397
      7 C          67.0670   29.4270   32.8750 C.ar  298  TYR298298   -0.0502
      8 C          68.3360   28.8480   32.9480 C.ar  298  TYR298298   -0.0554
      9 C          66.7470   30.4350   33.7780 C.ar  298  TYR298298   -0.0554
     10 C          69.2520   29.2740   33.9060 C.ar  298  TYR298298   -0.0199
     11 C          67.6500   30.8610   34.7280 C.ar  298  TYR298298   -0.0199
     12 C          68.8940   30.2790   34.7900 C.ar  298  TYR298298    0.1169
     13 O          69.7740   30.6760   35.7570 O.3   298  TYR298298   -0.5068
     14 C          69.6220   34.9570   36.2060 C.3   356  GLU356356   -0.0496
     15 C          69.5640   33.4480   36.0580 C.3   356  GLU356356    0.0657
     16 C          67.8420   31.7830   38.3730 C.3  1449  G2F14491449    0.1854
     17 C          67.8800   31.9430   39.9300 C.3  1449  G2F14491449    0.1339
     18 C          69.0540   31.1130   40.4890 C.3  1449  G2F14491449    0.1141
     19 O          68.9940   31.1880   41.9040 O.3  1449  G2F14491449   -0.3864
     20 C          69.0000   29.6200   40.0450 C.3  1449  G2F14491449    0.1119
     21 O          70.1620   28.9050   40.5170 O.3  1449  G2F14491449   -0.3865
     22 C          68.8200   29.5740   38.4900 C.3  1449  G2F14491449    0.1130
     23 O          67.6860   30.3780   38.0990 O.3  1449  G2F14491449   -0.3407
     24 C          68.6080   28.1890   37.8720 C.3  1449  G2F14491449    0.0730
     25 O          67.5240   27.5050   38.4900 O.3  1449  G2F14491449   -0.3924
     26 O          67.9310   33.3370   40.3830 O.3  1449  G2F14491449   -0.3841
     27 H          62.4474   35.8912   41.3599 H       1  LIG11       0.0235
     28 H          63.0879   34.3520   41.8830 H       1  LIG11       0.0235
     29 H          61.8417   34.4095   40.6595 H       1  LIG11       0.0235
     30 H          66.4988   28.2253   31.2314 H       2  LIG22       0.0278
     31 H          65.8409   29.8438   31.2043 H       2  LIG22       0.0278
     32 H          65.1855   28.6525   32.3018 H       2  LIG22       0.0278
     33 H          70.3242   35.3574   35.5050 H       3  LIG33       0.0240
     34 H          69.9289   35.2063   37.2003 H       3  LIG33       0.0240
     35 H          68.6537   35.3714   36.0171 H       3  LIG33       0.0240
     36 H          63.3761   35.5351   39.1496 H       1  LIG11       0.0375
     37 H          64.6254   35.4509   40.3982 H       1  LIG11       0.0375
     38 H          62.8652   32.7182   40.5196 H       1  LIG11       0.2951
     39 H          68.5964   28.0993   32.2872 H       2  LIG22       0.0621
     40 H          65.8136   30.8733   33.7359 H       2  LIG22       0.0621
     41 H          70.1892   28.8451   33.9572 H       2  LIG22       0.0654
     42 H          67.3941   31.6117   35.3883 H       2  LIG22       0.0654
     43 H          70.6239   30.2845   35.8063 H       2  LIG22       0.2921
     44 H          66.9547   31.5709   40.3176 H       3  LIG33       0.0671
     45 H          69.9693   31.5138   40.1062 H       3  LIG33       0.0648
     46 H          68.1527   30.8163   42.2121 H       3  LIG33       0.2100
     47 H          68.1630   29.1195   40.4852 H       3  LIG33       0.0647
     48 H          70.9628   29.3120   40.1510 H       3  LIG33       0.2100
     49 H          69.7549   29.9419   38.1217 H       3  LIG33       0.0647
     50 H          69.5003   27.6118   37.9968 H       3  LIG33       0.0584
     51 H          68.3791   28.3148   36.8344 H       3  LIG33       0.0584
     52 H          67.7148   27.3821   39.4331 H       3  LIG33       0.2095
     53 H          68.7506   33.7495   40.0683 H       4  LIG4        0.2101
     54 O          67.1043   32.5411   38.2119 O.3     4  LIG4       -0.3649
     55 H          67.4622   33.4024   38.4785 H       4  LIG4        0.2126
     56 H          68.6486   31.9551   37.6914 H       4  LIG4        0.0935
     57 H          70.5323   33.0336   36.2469 H       3  LIG3        0.0445
     58 H          69.2571   33.1987   35.0637 H       3  LIG3        0.0445
     59 C          68.8617   33.0476   36.7590 C.1     3  LIG3        0.2336
     60 O          68.6531   32.0996   36.3741 O.2     3  LIG3       -0.2054
     61 O          68.3953   33.6176   37.3732 O.2     3  LIG3       -0.2054
     62 H          66.1411   26.5366   37.2531 H       5  LIG5        0.2921
     63 H          65.9188   24.7683   35.6707 H       5  LIG5        0.0660
     64 O          65.2407   26.7822   37.1701 O.2     5  LIG5       -0.5067
     65 C          64.9263   25.0370   35.5828 C.2     5  LIG5       -0.0124
     66 C          64.4247   26.1061   36.3075 C.2     5  LIG5        0.1180
     67 H          64.4467   23.5309   34.1929 H       5  LIG5        0.0709
     68 C          64.0793   24.3286   34.7348 C.2     5  LIG5       -0.0103
     69 C          63.1055   26.4760   36.1946 C.2     5  LIG5       -0.0124
     70 C          62.7357   24.6901   34.6124 C.1     5  LIG5       -0.0450
     71 H          62.7422   27.2763   36.7356 H       5  LIG5        0.0660
     72 C          62.2714   25.7709   35.3541 C.2     5  LIG5       -0.0103
     73 C          61.8140   23.9620   33.6781 C.1     5  LIG5        0.2976
     74 H          61.2813   26.0507   35.2736 H       5  LIG5        0.0709
     75 O          62.7556   23.3890   32.6428 O.2     5  LIG5       -0.1922
     76 O          60.4568   24.1673   33.8378 O.2     5  LIG5       -0.1922
@<TRIPOS>BOND
     1    16    17    1
     2    16    23    1
     3    17    18    1
     4    17    26    1
     5    18    19    1
     6    18    20    1
     7    20    21    1
     8    20    22    1
     9    22    23    1
    10    22    24    1
    11    24    25    1
    12     6     7    1
    13     7     8   ar
    14     7     9   ar
    15     8    10   ar
    16     9    11   ar
    17    10    12   ar
    18    11    12   ar
    19    12    13    1
    20    15    14    1
    21     5     3    2
    22     3     4    1
    23     3     2    1
    24     2     1    1
    25     1    27    1
    26     1    28    1
    27     1    29    1
    28     6    30    1
    29     6    31    1
    30     6    32    1
    31    14    33    1
    32    14    34    1
    33    14    35    1
    34     2    36    1
    35     2    37    1
    36     4    38    1
    37     8    39    1
    38     9    40    1
    39    10    41    1
    40    11    42    1
    41    13    43    1
    42    17    44    1
    43    18    45    1
    44    19    46    1
    45    20    47    1
    46    21    48    1
    47    22    49    1
    48    24    50    1
    49    24    51    1
    50    25    52    1
    51    26    53    1
    52    16    54    1
    53    54    55    1
    54    16    56    1
    55    15    57    1
    56    15    58    1
    57    15    59    1
    58    59    60    2
    59    59    61    2
    60    64    62    1
    61    65    66    2
    62    65    63    1
    63    66    64    1
    64    68    65    1
    65    68    67    1
    66    69    66    1
    67    69    71    1
    68    70    68    2
    69    70    72    1
    70    72    69    2
    71    72    74    1
    72    73    70    2
    73    73    75    2
    74    73    76    2
