@<TRIPOS>MOLECULE
*****
 75 76 0 0 0
SMALL
GASTEIGER

@<TRIPOS>ATOM
      1 C          62.5260   34.7791   41.1174 C.3   167  GLU167     -0.0596
      2 C          63.5540   34.8310   39.9651 C.3   167  GLU167     -0.0120
      3 C          63.5218   33.6101   39.0627 C.2   167  GLU167      0.0227
      4 O          63.1936   32.4882   39.6450 O.3   167  GLU167     -0.5257
      5 O          63.3546   33.7379   37.8730 O.co2 167  GLU167     -0.8510
      6 C          66.1033   29.9022   30.4650 C.3   298  TYR298     -0.0613
      7 C          66.1422   28.8738   31.6136 C.3   298  TYR298     -0.0305
      8 C          67.1239   29.2700   32.7006 C.ar  298  TYR298     -0.0474
      9 C          68.4380   28.7906   32.7021 C.ar  298  TYR298     -0.0551
     10 C          66.6973   30.0925   33.7370 C.ar  298  TYR298     -0.0551
     11 C          69.3215   29.1420   33.7248 C.ar  298  TYR298     -0.0199
     12 C          67.5618   30.3945   34.7780 C.ar  298  TYR298     -0.0199
     13 C          68.8868   29.9473   34.7717 C.ar  298  TYR298      0.1169
     14 O          69.6706   30.1348   35.8762 O.3   298  TYR298     -0.5068
     15 C          69.4479   34.9079   36.1707 C.3   356  GLU356     -0.0636
     16 C          69.4942   33.3449   36.3449 C.3   356  GLU356     -0.0329
     17 C          68.5862   32.7324   37.5188 C.3   356  GLU356      0.0908
     18 O          69.4813   32.5983   38.5893 O.3   356  GLU356     -0.3219
     19 O          67.9354   32.8066   36.5805 O.co2 356  GLU356     -0.8239
     20 C          68.3969   32.4347   38.6850 C.3  1449  G2F1449     0.2896
     21 C          68.4438   32.1751   39.8832 C.3  1449  G2F1449     0.1695
     22 C          69.3193   31.0841   40.6857 C.3  1449  G2F1449     0.1179
     23 O          69.0997   30.9837   42.1078 O.3  1449  G2F1449    -0.3863
     24 C          69.0462   29.7101   40.1086 C.3  1449  G2F1449     0.1122
     25 O          70.1466   28.8317   40.3971 O.3  1449  G2F1449    -0.3865
     26 C          68.8999   29.9120   38.6083 C.3  1449  G2F1449     0.1163
     27 O          68.3713   31.3043   38.4108 O.3  1449  G2F1449    -0.3120
     28 C          68.1312   28.7272   37.9375 C.3  1449  G2F1449     0.0731
     29 O          67.2380   27.9667   38.7966 O.3  1449  G2F1449    -0.3924
     30 O          68.6922   33.1860   40.8900 O.3  1449  G2F1449    -0.3806
     31 H          63.3429   35.6965   39.3319 H       1  LIG1        0.0328
     32 H          64.5586   34.9757   40.3723 H       1  LIG1        0.0328
     33 H          62.8652   32.7182   40.5196 H       1  LIG1        0.2899
     34 H          66.4251   27.8939   31.2224 H       2  LIG2        0.0311
     35 H          65.1415   28.7606   32.0418 H       2  LIG2        0.0311
     36 H          68.7723   28.1180   31.9184 H       2  LIG2        0.0621
     37 H          65.6771   30.4716   33.7677 H       2  LIG2        0.0621
     38 H          70.3296   28.7397   33.7389 H       2  LIG2        0.0654
     39 H          67.1547   30.9410   35.6164 H       2  LIG2        0.0654
     40 H          70.6239   30.2845   35.8063 H       2  LIG2        0.2921
     41 H          70.5264   33.1484   36.6423 H       3  LIG3        0.0280
     42 H          69.5241   32.8529   35.3418 H       3  LIG3        0.0280
     43 H          67.3704   31.9385   40.0729 H       3  LIG3        0.0712
     44 H          70.3694   31.3347   40.5158 H       3  LIG3        0.0649
     45 H          68.1527   30.8163   42.2121 H       3  LIG3        0.2100
     46 H          68.1152   29.3364   40.5393 H       3  LIG3        0.0647
     47 H          70.9628   29.3120   40.1510 H       3  LIG3        0.2100
     48 H          69.9126   29.9448   38.2053 H       3  LIG3        0.0648
     49 H          68.8926   28.0365   37.5628 H       3  LIG3        0.0584
     50 H          67.5744   29.0996   37.0777 H       3  LIG3        0.0584
     51 H          67.7148   27.3821   39.4331 H       3  LIG3        0.2095
     52 O          67.3779   33.4216   38.8167 O.3     3  LIG3       -0.4417
     53 H          68.7506   33.7495   40.0683 H       3  LIG3        0.2103
     54 C          67.9925   34.9583   38.9176 C.ar    3  LIG3        0.1266
     55 C          66.8448   35.7026   38.6415 C.ar    3  LIG3       -0.0176
     56 C          66.8317   37.0784   38.9119 C.ar    3  LIG3       -0.0280
     57 C          69.1129   36.9649   39.6740 C.ar    3  LIG3       -0.0280
     58 C          69.1199   35.6053   39.4162 C.ar    3  LIG3       -0.0176
     59 H          70.0255   35.0330   39.5953 H       3  LIG3        0.0655
     60 C          67.9587   37.7232   39.4555 C.ar    3  LIG3        0.1264
     61 H          65.9250   37.6406   38.7020 H       3  LIG3        0.0641
     62 H          65.9627   35.2157   38.2259 H       3  LIG3        0.0655
     63 H          70.0242   37.4122   40.0593 H       3  LIG3        0.0641
     64 N          67.9483   39.0673   39.7933 N.pl3   3  LIG3        0.0564
     65 O          68.9914   39.5884   40.3482 O.2     3  LIG3       -0.1261
     66 O          66.8779   39.7603   39.6098 O.2     3  LIG3       -0.1261
     67 H          67.0834   30.0098   30.0493 H       2  LIG2        0.0233
     68 H          65.7705   30.8464   30.8428 H       2  LIG2        0.0233
     69 H          65.4291   29.5640   29.7061 H       2  LIG2        0.0233
     70 H          61.5450   34.6375   40.7141 H       1  LIG1        0.0233
     71 H          62.5572   35.6979   41.6649 H       1  LIG1        0.0233
     72 H          62.7637   33.9661   41.7712 H       1  LIG1        0.0233
     73 H          69.4195   35.3734   37.1337 H       3  LIG3        0.0230
     74 H          68.5732   35.1793   35.6174 H       3  LIG3        0.0230
     75 H          70.3194   35.2339   35.6425 H       3  LIG3        0.0230
@<TRIPOS>BOND
     1    17    20    1
     2    18    20    1
     3    20    21    1
     4    20    27    1
     5    21    22    1
     6    21    30    1
     7    22    23    1
     8    22    24    1
     9    24    25    1
    10    24    26    1
    11    26    27    1
    12    26    28    1
    13    28    29    1
    14     6     7    1
    15     7     8    1
    16     8     9   ar
    17     8    10   ar
    18     9    11   ar
    19    10    12   ar
    20    11    13   ar
    21    12    13   ar
    22    13    14    1
    23    16    15    1
    24    16    17    1
    25    19    17    1
    26    17    18    1
    27     5     3    2
    28     3     4    1
    29     3     2    1
    30     2     1    1
    31     2    31    1
    32     2    32    1
    33     4    33    1
    34     7    34    1
    35     7    35    1
    36     9    36    1
    37    10    37    1
    38    11    38    1
    39    12    39    1
    40    14    40    1
    41    16    41    1
    42    16    42    1
    43    21    43    1
    44    22    44    1
    45    23    45    1
    46    24    46    1
    47    25    47    1
    48    26    48    1
    49    28    49    1
    50    28    50    1
    51    29    51    1
    52    20    52    1
    53    30    53    1
    54    52    54    1
    55    54    55   ar
    56    55    56   ar
    57    57    58   ar
    58    58    54   ar
    59    58    59    1
    60    57    60   ar
    61    60    56   ar
    62    56    61    1
    63    55    62    1
    64    57    63    1
    65    60    64    1
    66    64    65    2
    67    64    66    2
    68     6    67    1
    69     6    68    1
    70     6    69    1
    71     1    70    1
    72     1    71    1
    73     1    72    1
    74    15    73    1
    75    15    74    1
    76    15    75    1
